Example_1c/PythonTransmissionFederate.log
Voltage value = 136.59336599999997 kV
Python Federate grantedtime = 1e-09
Load value = (2853.1696113942044+923.7055641182151j) kW
 Federate m has been registered
1
complex
Registered Subscription ---> IEEE_123_feeder_0/totalLoad
PF TIme is 0.0 and ACOPF time is 0.0
PYPOWER Version 5.1.4, 27-June-2018 -- AC Optimal Power Flow
Python Interior Point Solver - PIPS, Version 1.0, 07-Feb-2011
Converged!

Converged in 3.59 seconds
Objective Function Value = 31933.76 $/hr
================================================================================
|     System Summary                                                           |
================================================================================

How many?                How much?              P (MW)            Q (MVAr)
---------------------    -------------------  -------------  -----------------
Buses            118     Total Gen Capacity    9966.2       -7345.0 to 11777.0
Generators        54     On-line Capacity      9966.2       -7345.0 to 11777.0
Committed Gens    54     Generation (actual)   1379.1            -611.9
Loads             99     Load                  1366.7             834.3
  Fixed           99       Fixed               1366.7             834.3
  Dispatchable     0       Dispatchable           0.0 of 0.0        0.0
Shunts            14     Shunt (inj)             -0.0              97.7
Branches         186     Losses (I^2 * Z)        12.45             80.48
Transformers       9     Branch Charging (inj)     -             1429.1
Inter-ties         0     Total Inter-tie Flow     0.0               0.0
Areas              1

                          Minimum                      Maximum
                 -------------------------  --------------------------------
Voltage Magnitude   1.004 p.u. @ bus 81         1.060 p.u. @ bus 83  
Voltage Angle      24.04 deg   @ bus 41        33.14 deg   @ bus 10  
P Losses (I^2*R)             -                  0.68 MW    @ line 69-75
Q Losses (I^2*X)             -                  6.90 MVAr  @ line 8-9
Lambda P           25.87 $/MWh @ bus 89        27.33 $/MWh @ bus 112 
Lambda Q           -0.40 $/MWh @ bus 44         0.06 $/MWh @ bus 118 

================================================================================
|     Bus Data                                                                 |
================================================================================
 Bus      Voltage          Generation             Load          Lambda($/MVA-hr)
  #   Mag(pu) Ang(deg)   P (MW)   Q (MVAr)   P (MW)   Q (MVAr)     P        Q   
----- ------- --------  --------  --------  --------  --------  -------  -------
    1  1.035   25.776      0.00      7.91     11.11      6.88    26.883     -
    2  1.035   25.863       -         -        5.99      3.71    26.867   0.009
    3  1.035   26.012       -         -        9.43      5.84    26.818   0.015
    4  1.039   26.900      0.00     37.95     12.53      7.76    26.611     -
    5  1.038   27.061       -         -         -         -      26.586   0.024
    6  1.037   26.255      0.00     16.63     17.20     10.66    26.757     -
    7  1.037   26.152       -         -        7.14      4.42    26.783   0.006
    8  1.022   28.460      0.00   -153.51      8.44      5.23    26.599     -
    9  1.046   30.660       -         -         -         -      26.433  -0.074
   10  1.032   33.141    140.82   -118.23       -         -      26.259     -
   11  1.035   26.219       -         -       20.97     13.00    26.788   0.027
   12  1.037   26.098     28.91     12.05     11.36      7.04    26.801     -
   13  1.033   25.740       -         -       10.92      6.77    26.915   0.043
   14  1.037   25.793       -         -        4.84      3.00    26.874  -0.005
   15  1.040   25.476      0.00     -9.42     29.76     18.45    26.930  -0.001
   16  1.039   25.835       -         -        9.39      5.82    26.849  -0.012
   17  1.049   26.113       -         -        3.31      2.05    26.739  -0.085
   18  1.040   25.544      0.00     -2.63     20.23     12.54    26.900     -
   19  1.040   25.423      0.00     -7.07      9.80      6.07    26.936  -0.000
   20  1.042   25.619       -         -        5.39      3.34    26.938  -0.011
   21  1.045   25.996       -         -        3.38      2.10    26.891  -0.025
   22  1.048   26.601       -         -        3.21      1.99    26.803  -0.037
   23  1.053   27.878       -         -        2.42      1.50    26.608  -0.036
   24  1.049   27.704      0.00    -13.51      4.30      2.66    26.692     -
   25  1.057   30.183     68.93    -24.25       -         -      26.266     -
   26  1.017   30.796     99.09    -54.21       -         -      26.311     -
   27  1.044   26.383      0.00      6.90     23.93     14.83    26.888     -
   28  1.042   25.994       -         -        3.70      2.29    26.956   0.004
   29  1.040   25.751       -         -        7.19      4.46    27.000   0.011
   30  1.026   27.534       -         -         -         -      26.688  -0.088
   31  1.041   25.777      2.44      3.12     13.81      8.56    26.982     -
   32  1.043   26.211      0.00      0.65     20.39     12.64    26.919     -
   33  1.047   25.101       -         -        7.61      4.71    26.950  -0.105
   34  1.058   25.088      0.00     -8.00     22.16     13.73    26.862  -0.221
   35  1.055   25.002       -         -        9.94      6.16    26.888  -0.184
   36  1.054   25.002      0.00     -8.00     10.45      6.48    26.892  -0.180
   37  1.060   25.226       -         -         -         -      26.816  -0.233
   38  1.016   26.730       -         -         -         -      26.757  -0.144
   39  1.044   24.448       -         -        6.53      4.05    27.128  -0.074
   40  1.037   24.187      0.00     -4.55     21.20     13.14    27.253     -
   41  1.034   24.045       -         -       12.79      7.92    27.315   0.030
   42  1.038   24.454      0.00      9.94     31.75     19.68    27.223     -
   43  1.059   24.923       -         -        6.76      4.19    26.996  -0.316
   44  1.060   25.579       -         -        4.82      2.99    27.006  -0.404
   45  1.051   26.194       -         -       17.87     11.07    26.975  -0.242
   46  1.042   27.317      6.43    -28.89      6.10      3.78    26.767     -
   47  1.046   27.846       -         -       10.19      6.31    26.643   0.002
   48  1.052   27.596       -         -        4.84      3.00    26.652  -0.112
   49  1.047   27.950     67.08    -31.67     27.95     17.32    26.576     -
   50  1.043   27.314       -         -        5.87      3.64    26.750   0.006
   51  1.038   26.488       -         -        5.62      3.48    26.978   0.018
   52  1.036   26.200       -         -        6.76      4.19    27.061   0.027
   53  1.036   25.955       -         -        6.93      4.30    27.077   0.015
   54  1.038   26.218     16.78     11.37     38.09     23.61    26.992     -
   55  1.038   26.171      0.00      4.59     13.72      8.50    26.999     -
   56  1.038   26.198      0.00      6.85     25.16     15.60    26.999     -
   57  1.040   26.567       -         -        2.90      1.80    26.923  -0.009
   58  1.037   26.281       -         -        3.85      2.39    27.015   0.011
   59  1.043   27.235     51.58     14.88     95.73     59.33    26.655     -
   60  1.042   28.347       -         -       25.80     15.99    26.509   0.013
   61  1.044   28.592     51.72     30.02       -         -      26.465     -
   62  1.044   28.447      0.00     10.60     23.20     14.38    26.503     -
   63  1.014   28.191       -         -         -         -      26.568  -0.003
   64  1.020   28.694       -         -         -         -      26.478  -0.025
   65  1.010   29.672    124.00    -67.00       -         -      26.343  -0.004
   66  1.054   29.793    123.24    -67.00      9.43      5.84    26.288  -0.015
   67  1.047   28.931       -         -        8.99      5.57    26.439   0.007
   68  1.008   29.471       -         -         -         -      26.325  -0.000
   69  1.056   30.000*   161.30    -91.87       -         -      26.247     -
   70  1.045   27.493      0.00     -0.57     24.79     15.36    26.838     -
   71  1.046   27.446       -         -         -         -      26.839  -0.007
   72  1.046   27.375      0.00     -2.88      4.05      2.51    26.815     -
   73  1.045   27.422      0.00     -1.47      1.31      0.81    26.845     -
   74  1.041   26.955      0.00     -0.60     20.37     12.63    27.050     -
   75  1.041   27.241       -         -       11.36      7.04    26.991   0.012
   76  1.037   26.485      0.00     18.92     21.84     13.54    27.205     -
   77  1.047   28.731      0.00    -17.81     21.08     13.06    26.576     -
   78  1.047   28.641       -         -       23.48     14.55    26.594   0.005
   79  1.050   28.724       -         -       14.65      9.08    26.555  -0.023
   80  1.052   29.612    151.04    -56.71     39.18     24.28    26.333     -
   81  1.004   29.538       -         -         -         -      26.325   0.012
   82  1.059   28.674       -         -       11.76      7.29    26.489  -0.238
   83  1.060   28.890       -         -        5.99      3.71    26.406  -0.299
   84  1.057   29.504       -         -        2.66      1.65    26.259  -0.144
   85  1.055   29.898      0.00     -8.00      7.71      4.78    26.149  -0.063
   86  1.051   29.558       -         -        7.26      4.50    26.248  -0.024
   87  1.048   29.719      1.25     -4.22       -         -      26.232     -
   88  1.053   30.648       -         -       18.03     11.17    26.052   0.010
   89  1.060   31.767    178.05    -15.71       -         -      25.867     -
   90  1.052   29.981      0.00     25.72     54.95     34.05    26.266     -
   91  1.053   30.068      0.00     -1.67      2.18      1.35    26.230     -
   92  1.055   30.342      0.00     -2.78     19.47     12.07    26.136  -0.001
   93  1.053   29.645       -         -        2.90      1.80    26.306  -0.019
   94  1.051   29.156       -         -        9.64      5.97    26.423  -0.032
   95  1.049   28.876       -         -       14.51      9.00    26.497  -0.030
   96  1.053   28.868       -         -       12.57      7.79    26.476  -0.090
   97  1.052   29.100       -         -        5.63      3.49    26.430  -0.043
   98  1.049   29.119       -         -       10.25      6.35    26.433   0.016
   99  1.050   28.894      0.00      4.70     14.16      8.77    26.472     -
  100  1.051   29.210     80.70    -16.61      8.06      4.99    26.405     -
  101  1.052   29.437       -         -        6.59      4.08    26.342   0.002
  102  1.055   30.011       -         -        1.21      0.75    26.209  -0.006
  103  1.047   28.207     13.33     -5.39      7.39      4.58    26.666     -
  104  1.043   27.317      0.00     -3.53     13.13      8.14    26.871     -
  105  1.044   26.981      0.00     -8.00     10.25      6.35    26.951  -0.034
  106  1.041   26.897       -         -       16.15     10.01    26.978  -0.003
  107  1.038   26.226      0.00     -3.41     15.07      9.34    27.165     -
  108  1.043   26.747       -         -        0.67      0.42    27.010  -0.030
  109  1.042   26.667       -         -        1.74      1.08    27.030  -0.024
  110  1.041   26.531      0.00     -7.64     11.68      7.24    27.060  -0.001
  111  1.043   27.027     12.46     -1.06       -         -      26.924     -
  112  1.035   25.784      0.00     10.43     21.84     13.54    27.334     -
  113  1.044   26.177      0.00    -21.03      2.07      1.29    26.771     -
  114  1.041   26.115       -         -        2.65      1.64    26.944   0.016
  115  1.041   26.112       -         -        8.26      5.12    26.946   0.018
  116  1.008   29.344      0.00     23.77     55.45     34.36    26.335     -
  117  1.032   25.632       -         -        6.74      4.18    26.913   0.039
  118  1.033   26.355       -         -       42.80     13.86    27.259   0.058
                        --------  --------  --------  --------
               Total:   1379.14   -611.91   1366.69    834.33

================================================================================
|     Branch Data                                                              |
================================================================================
Brnch   From   To    From Bus Injection   To Bus Injection     Loss (I^2 * Z)  
  #     Bus    Bus    P (MW)   Q (MVAr)   P (MW)   Q (MVAr)   P (MW)   Q (MVAr)
-----  -----  -----  --------  --------  --------  --------  --------  --------
   0      1      2     -1.49     -0.94      1.49     -1.77     0.001      0.00
   1      1      3     -9.62      1.97      9.63     -3.09     0.012      0.04
   2      4      5    -31.34     30.40     31.37    -30.49     0.031      0.14
   3      3      5    -17.81      0.26     17.88     -2.99     0.072      0.32
   4      5      6     26.91     -5.87    -26.82      4.71     0.083      0.38
   5      6      7      9.63      1.25     -9.62     -1.83     0.004      0.02
   6      8      9   -139.72   -125.01    140.27      7.65     0.552      6.90
   7      8      5     98.47      2.34    -98.47      0.06    -0.000      2.40
   8      9     10   -140.27     -7.65    140.82   -118.23     0.548      6.84
   9      4     11     18.81     -0.22    -18.74     -1.44     0.069      0.23
  10      5     11     22.31     -3.78    -22.22      2.23     0.095      0.32
  11     11     12      7.94    -12.24     -7.93     11.74     0.011      0.04
  12      2     12     -7.48     -1.94      7.49      0.28     0.010      0.03
  13      3     12     -1.25     -3.02      1.26     -1.34     0.001      0.00
  14      7     12      2.49     -2.60     -2.49      1.66     0.001      0.00
  15     11     13     12.05     -1.55    -12.02     -0.36     0.030      0.10
  16     12     14      7.32     -3.55     -7.30      1.63     0.012      0.04
  17     13     15      1.10     -6.41     -1.09     -0.30     0.007      0.02
  18     14     15      2.47     -4.63     -2.46     -0.76     0.005      0.02
  19     12     16      5.14     -4.20     -5.13      1.93     0.007      0.03
  20     15     17    -31.91    -16.10     32.06     11.74     0.147      0.49
  21     16     17     -4.26     -7.74      4.28      2.74     0.019      0.08
  22     17     18     24.83     12.99    -24.74    -14.04     0.090      0.37
  23     18     19      4.51     -1.13     -4.51     -0.10     0.002      0.01
  24     19     20     -3.38     -2.59      3.38     -0.62     0.003      0.01
  25     15     19      2.20     -1.68     -2.20      0.60     0.001      0.00
  26     20     21     -8.77     -2.72      8.79      0.43     0.013      0.06
  27     21     22    -12.17     -2.53     12.20     -0.03     0.029      0.13
  28     22     23    -15.41     -1.96     15.49     -2.16     0.074      0.34
  29     23     24      8.69      4.07     -8.67     -9.51     0.015      0.05
  30     23     25    -54.76      1.45     55.19     -8.87     0.427      2.19
  31     26     25     31.37      7.01    -31.37     -6.66    -0.000      0.35
  32     25     27     45.12     -8.71    -44.54     -7.79     0.579      2.97
  33     27     28      8.77     -0.56     -8.76     -1.73     0.014      0.06
  34     28     29      5.06     -0.57     -5.05     -1.99     0.006      0.02
  35     30     17     71.67     53.11    -71.67    -50.40    -0.000      2.70
  36      8     30     32.82    -36.08    -32.77    -17.27     0.048      0.56
  37     26     30     67.72    -61.22    -67.35    -29.55     0.370      3.98
  38     17     31      5.31      1.77     -5.29     -6.07     0.019      0.06
  39     29     31     -2.14     -2.47      2.14      1.57     0.001      0.00
  40     23     32     28.17     -4.86    -27.94     -7.20     0.228      0.83
  41     31     32     -8.22     -0.94      8.24     -1.72     0.019      0.06
  42     27     32      4.36     -0.94     -4.36     -1.15     0.004      0.01
  43     15     33      3.50     -9.02     -3.47      5.62     0.023      0.08
  44     19     34      0.28    -11.05     -0.24      4.23     0.041      0.13
  45     35     36      0.83      3.50     -0.83     -3.80     0.000      0.00
  46     35     37    -10.77     -9.66     10.79      8.28     0.019      0.09
  47     33     37     -4.13    -10.33      4.17      6.38     0.033      0.11
  48     34     36      9.64     10.09     -9.62    -10.68     0.016      0.05
  49     34     37    -33.24    -17.11     33.28     16.12     0.032      0.12
  50     38     37     80.66     78.65    -80.66    -74.62    -0.000      4.03
  51     37     39     17.38      9.08    -17.26    -11.68     0.118      0.39
  52     37     40     15.05      6.67    -14.89    -10.83     0.163      0.46
  53     30     38     28.45     -6.29    -28.40    -37.15     0.047      0.55
  54     39     40     10.73      7.63    -10.70     -9.21     0.032      0.10
  55     40     41      6.91      4.12     -6.90     -5.40     0.009      0.03
  56     40     42     -2.52     -1.77      2.52     -3.23     0.004      0.01
  57     41     42     -5.89     -2.53      5.90     -1.12     0.013      0.04
  58     43     44     -5.07     -2.75      5.09     -4.00     0.014      0.06
  59     34     43      1.69     -3.28     -1.69     -1.44     0.001      0.01
  60     44     45     -9.91     12.25      9.97    -14.52     0.056      0.23
  61     45     46    -12.58      9.12     12.68    -12.42     0.101      0.34
  62     46     47     -8.16     -2.56      8.19     -0.80     0.024      0.08
  63     46     48     -4.19     -6.85      4.21      1.74     0.020      0.06
  64     47     49     -3.72     -2.56      3.72      0.82     0.003      0.01
  65     42     49    -20.09     -2.69     20.36     -5.43     0.270      1.22
  66     42     49    -20.09     -2.69     20.36     -5.43     0.270      1.22
  67     45     49    -15.25      5.36     15.44     -9.75     0.182      0.49
  68     48     49     -9.04     11.85      9.08    -13.13     0.039      0.11
  69     49     50     16.09     -1.18    -16.03     -0.69     0.063      0.18
  70     49     51     20.32     -1.68    -20.14     -1.52     0.183      0.52
  71     51     52      9.42     -0.08     -9.41     -1.37     0.017      0.05
  72     52     53      2.65     -2.82     -2.64     -1.52     0.003      0.01
  73     53     54     -4.29     -2.77      4.29     -0.54     0.005      0.02
  74     49     54     11.52     -3.46    -11.43     -4.21     0.089      0.35
  75     49     54     11.32     -3.91    -11.22     -3.68     0.102      0.34
  76     54     55      1.26     -1.02     -1.26     -1.15     0.000      0.00
  77     54     56      4.22      0.67     -4.22     -1.45     0.000      0.00
  78     55     56     -3.10      0.54      3.10     -0.94     0.000      0.00
  79     56     57     -7.19     -1.29      7.21     -1.27     0.016      0.05
  80     50     57     10.15     -2.95    -10.11     -0.53     0.045      0.13
  81     56     58     -1.23     -0.24      1.23     -2.36     0.001      0.00
  82     51     58      5.09     -1.88     -5.08     -0.03     0.006      0.02
  83     54     59     -8.43     -3.45      8.46     -2.87     0.033      0.15
  84     56     59     -7.63     -2.54      7.68     -3.48     0.045      0.14
  85     56     59     -7.99     -2.28      8.04     -3.37     0.048      0.14
  86     55     59     -9.37     -3.30      9.41     -2.63     0.039      0.18
  87     59     60    -13.71      1.79     13.76     -5.61     0.059      0.27
  88     59     61    -16.45      1.21     16.54     -5.04     0.085      0.39
  89     60     61    -35.55     -6.65     35.58      5.23     0.032      0.16
  90     60     62     -4.02     -3.73      4.02      2.15     0.003      0.01
  91     61     62      6.78     -3.08     -6.77      2.03     0.004      0.02
  92     63     59     47.58     36.33    -47.58    -35.09    -0.000      1.24
  93     63     64    -47.58    -36.33     47.63     14.56     0.049      0.56
  94     64     61      7.18    -32.63     -7.18     32.91    -0.000      0.28
  95     38     65    -52.26    -41.50     52.51    -63.10     0.252      2.76
  96     64     65    -54.80     18.07     54.92    -55.91     0.115      1.29
  97     49     66    -38.60     -1.19     38.85     -0.30     0.245      1.25
  98     49     66    -38.60     -1.19     38.85     -0.30     0.245      1.25
  99     62     66    -12.33     -5.25     12.39     -0.80     0.069      0.31
 100     62     67     -8.12     -2.71      8.14     -0.61     0.016      0.07
 101     65     66     -6.53     75.56      6.53    -73.73    -0.000      1.82
 102     66     67     17.20      2.29    -17.13     -4.97     0.062      0.28
 103     65     68     23.10    -23.55    -23.09    -41.32     0.008      0.10
 104     47     69    -14.65     -2.95     14.82     -4.33     0.166      0.55
 105     49     69    -11.87     -3.43     11.99     -5.30     0.128      0.42
 106     68     69    -28.43     66.12     28.43    -64.48    -0.000      1.65
 107     69     70     38.16     -6.07    -37.77     -5.73     0.392      1.66
 108     24     70      0.99     -4.65     -0.99     -6.52     0.000      0.01
 109     70     71      1.97     -2.76     -1.97      1.80     0.001      0.00
 110     24     72      3.39     -2.01     -3.38     -3.32     0.005      0.02
 111     71     72      0.67     -2.79     -0.67     -2.07     0.000      0.00
 112     71     73      1.31      0.99     -1.31     -2.28     0.000      0.00
 113     70     74      8.04     -0.80     -8.01     -2.79     0.024      0.08
 114     70     75      3.96     -0.12     -3.95     -3.77     0.007      0.02
 115     69     75     43.20     -7.38    -42.53     -4.20     0.678      2.04
 116     74     75    -12.36      2.55     12.38     -3.61     0.018      0.06
 117     76     77    -28.22     -0.16     28.55     -2.73     0.330      1.10
 118     69     77     24.69     -4.31    -24.52     -6.62     0.170      0.55
 119     75     77    -13.88     -1.69     13.99     -3.38     0.108      0.36
 120     77     78     14.34      0.84    -14.34     -2.20     0.007      0.02
 121     78     79     -9.14    -12.35      9.15     11.69     0.011      0.05
 122     77     80    -34.16     -0.48     34.34     -4.21     0.182      0.52
 123     77     80    -16.13     -1.29     16.20     -0.97     0.070      0.25
 124     79     80    -23.80      1.28     23.88     -2.98     0.081      0.37
 125     68     81     -3.94    -18.85      3.94    -62.83     0.009      0.10
 126     81     80     -3.94     62.83      3.94    -61.55    -0.000      1.27
 127     77     82     -3.16    -17.22      3.20      8.29     0.047      0.13
 128     82     83    -11.71     -2.68     11.72     -1.53     0.014      0.04
 129     83     84     -6.35      4.34      6.39     -7.14     0.041      0.09
 130     83     85    -11.36      4.72     11.43     -8.38     0.066      0.23
 131     84     85     -9.05      5.49      9.08     -6.80     0.033      0.07
 132     85     86      6.03      0.82     -6.01     -3.83     0.013      0.05
 133     86     87     -1.25     -0.66      1.25     -4.22     0.001      0.01
 134     85     88    -13.24      3.63     13.28     -6.51     0.036      0.19
 135     85     89    -21.00     -2.04     21.10     -2.53     0.095      0.69
 136     88     89    -31.31     -4.66     31.43      3.14     0.124      0.64
 137     89     90     18.34     -3.52    -18.18     -1.81     0.155      0.56
 138     89     90     34.90     -5.80    -34.64     -4.95     0.258      1.08
 139     90     91     -2.13     -1.58      2.13     -0.79     0.001      0.00
 140     89     92     54.96     -3.64    -54.69     -1.13     0.266      1.36
 141     89     92     17.33     -3.37    -17.22     -0.84     0.105      0.42
 142     91     92     -4.31     -2.23      4.31     -1.38     0.007      0.02
 143     92     93     15.41     -2.98    -15.35      0.74     0.056      0.18
 144     92     94     14.06     -3.83    -13.97     -0.39     0.086      0.28
 145     93     94     12.45     -2.54    -12.42      0.56     0.032      0.10
 146     94     95     12.87      0.81    -12.85     -1.97     0.020      0.07
 147     80     96      7.53     -4.62     -7.51     -0.76     0.019      0.10
 148     82     96     -3.26      9.51      3.28    -15.49     0.024      0.08
 149     94     96      5.40     -4.52     -5.39      2.01     0.010      0.03
 150     80     97     10.27     -2.90    -10.26      0.18     0.018      0.09
 151     80     98      9.04     -0.47     -9.02     -2.61     0.018      0.08
 152     80     99      6.65     -3.30     -6.63     -2.65     0.018      0.08
 153     92    100      7.41     -2.73     -7.38     -2.36     0.032      0.15
 154     94    100     -1.51     -2.43      1.51     -4.24     0.001      0.00
 155     95     96     -1.67     -7.03      1.67      5.42     0.006      0.02
 156     96     97     -4.62      1.03      4.62     -3.67     0.004      0.02
 157     98    100     -1.23     -3.74      1.23     -1.50     0.001      0.00
 158     99    100     -7.52     -1.42      7.53     -0.92     0.009      0.04
 159    100    101     -3.41     -1.54      3.42     -2.07     0.003      0.01
 160     92    102     11.25     -1.96    -11.24      0.40     0.014      0.06
 161    101    102    -10.01     -2.01     10.03     -1.15     0.022      0.10
 162    100    103     36.02     -5.06    -35.84     -0.22     0.189      0.62
 163    100    104     17.87     -2.44    -17.74     -2.90     0.130      0.59
 164    103    104     10.58     -2.69    -10.53     -1.59     0.048      0.16
 165    103    105     13.59     -4.68    -13.50      0.51     0.093      0.28
 166    100    106     19.26     -3.54    -19.05     -2.47     0.203      0.77
 167    104    105     15.14     -7.17    -15.11      6.20     0.025      0.09
 168    105    106      4.03      3.52     -4.03     -5.06     0.004      0.02
 169    105    107      8.19     -1.25     -8.16     -3.75     0.033      0.12
 170    105    108      6.13     -1.52     -6.12     -0.46     0.009      0.02
 171    106    107      6.94     -2.48     -6.91     -2.54     0.024      0.08
 172    108    109      5.45      0.04     -5.45     -0.86     0.003      0.01
 173    103    110     17.61     -2.38    -17.50     -2.13     0.111      0.51
 174    109    110      3.71     -0.22     -3.70     -1.96     0.004      0.01
 175    110    111    -12.43     -1.00     12.46     -1.06     0.031      0.11
 176    110    112     21.95     -3.29    -21.84     -3.11     0.110      0.28
 177     17    113      1.89     19.10     -1.86    -19.84     0.032      0.11
 178     32    113      0.22     -3.16     -0.22     -2.48     0.000      0.00
 179     32    114      3.45      1.24     -3.45     -3.00     0.002      0.01
 180     27    115      7.47      1.36     -7.46     -3.46     0.009      0.04
 181    114    115      0.80      1.36     -0.80     -1.66     0.000      0.00
 182     68    116     55.46     -5.95    -55.45    -10.59     0.010      0.12
 183     12    117      6.76      0.41     -6.74     -4.18     0.016      0.07
 184     75    118     36.62      6.23    -36.44     -6.90     0.186      0.62
 185     76    118      6.37      5.55     -6.36     -6.96     0.012      0.04
                                                             --------  --------
                                                    Total:    12.455     80.48

================================================================================
|     Generation Constraints                                                   |
================================================================================
 Gen   Bus                Active Power Limits
  #     #    Pmin mu    Pmin       Pg       Pmax    Pmax mu
----  -----  -------  --------  --------  --------  -------
   0     1   13.117      0.00      0.00    100.00      -  
   1     4   13.389      0.00      0.00    100.00      -  
   2     6   13.243      0.00      0.00    100.00      -  
   3     8   13.401      0.00      0.00    100.00      -  
   6    15   13.070      0.00      0.00    100.00      -  
   7    18   13.100      0.00      0.00    100.00      -  
   8    19   13.064      0.00      0.00    100.00      -  
   9    24   13.308      0.00      0.00    100.00      -  
  12    27   13.112      0.00      0.00    100.00      -  
  14    32   13.081      0.00      0.00    100.00      -  
  15    34   13.138      0.00      0.00    100.00      -  
  16    36   13.108      0.00      0.00    100.00      -  
  17    40   12.747      0.00      0.00    100.00      -  
  18    42   12.777      0.00      0.00    100.00      -  
  22    55   13.001      0.00      0.00    100.00      -  
  23    56   13.001      0.00      0.00    100.00      -  
  26    62   13.497      0.00      0.00    100.00      -  
  30    70   13.162      0.00      0.00    100.00      -  
  31    72   13.185      0.00      0.00    100.00      -  
  32    73   13.155      0.00      0.00    100.00      -  
  33    74   12.950      0.00      0.00    100.00      -  
  34    76   12.795      0.00      0.00    100.00      -  
  35    77   13.424      0.00      0.00    100.00      -  
  37    85   13.851      0.00      0.00    100.00      -  
  40    90   13.734      0.00      0.00    100.00      -  
  41    91   13.770      0.00      0.00    100.00      -  
  42    92   13.864      0.00      0.00    100.00      -  
  43    99   13.528      0.00      0.00    100.00      -  
  46   104   13.129      0.00      0.00    100.00      -  
  47   105   13.049      0.00      0.00    100.00      -  
  48   107   12.835      0.00      0.00    100.00      -  
  49   110   12.940      0.00      0.00    100.00      -  
  51   112   12.666      0.00      0.00    100.00      -  
  52   113   13.229      0.00      0.00    100.00      -  
  53   116   13.665      0.00      0.00    100.00      -  

Gen  Bus              Reactive Power Limits
 #    #   Qmin mu    Qmin       Qg       Qmax    Qmax mu
---  ---  -------  --------  --------  --------  -------
 15   34   0.221     -8.00     -8.00     24.00      -  
 16   36   0.180     -8.00     -8.00     24.00      -  
 27   65   0.004    -67.00    -67.00    200.00      -  
 28   66   0.015    -67.00    -67.00    200.00      -  
 37   85   0.063     -8.00     -8.00     23.00      -  
 42   92   0.001     -3.00     -2.78      9.00      -  
 47  105   0.034     -8.00     -8.00     23.00      -  
PYPOWER Version 5.1.4, 27-June-2018 -- AC Power Flow (Newton)


Newton's method power flow converged in 1 iterations.

Converged in 0.03 seconds
================================================================================
|     System Summary                                                           |
================================================================================

How many?                How much?              P (MW)            Q (MVAr)
---------------------    -------------------  -------------  -----------------
Buses            118     Total Gen Capacity    9966.2       -7345.0 to 11777.0
Generators        54     On-line Capacity      9966.2       -7345.0 to 11777.0
Committed Gens    54     Generation (actual)   1379.1            -611.9
Loads             99     Load                  1366.7             834.3
  Fixed           99       Fixed               1366.7             834.3
  Dispatchable     0       Dispatchable           0.0 of 0.0        0.0
Shunts            14     Shunt (inj)             -0.0              97.7
Branches         186     Losses (I^2 * Z)        12.45             80.48
Transformers       9     Branch Charging (inj)     -             1429.1
Inter-ties         0     Total Inter-tie Flow     0.0               0.0
Areas              1

                          Minimum                      Maximum
                 -------------------------  --------------------------------
Voltage Magnitude   1.004 p.u. @ bus 81         1.060 p.u. @ bus 83  
Voltage Angle      24.04 deg   @ bus 41        33.14 deg   @ bus 10  
P Losses (I^2*R)             -                  0.68 MW    @ line 69-75
Q Losses (I^2*X)             -                  6.90 MVAr  @ line 8-9

================================================================================
|     Bus Data                                                                 |
================================================================================
 Bus      Voltage          Generation             Load        
  #   Mag(pu) Ang(deg)   P (MW)   Q (MVAr)   P (MW)   Q (MVAr)
----- ------- --------  --------  --------  --------  --------
    1  1.035   25.776      0.00      7.91     11.11      6.88 
    2  1.035   25.863       -         -        5.99      3.71 
    3  1.035   26.012       -         -        9.43      5.84 
    4  1.039   26.900      0.00     37.95     12.53      7.76 
    5  1.038   27.061       -         -         -         -   
    6  1.037   26.255      0.00     16.63     17.20     10.66 
    7  1.037   26.152       -         -        7.14      4.42 
    8  1.022   28.460      0.00   -153.51      8.44      5.23 
    9  1.046   30.660       -         -         -         -   
   10  1.032   33.141    140.82   -118.23       -         -   
   11  1.035   26.219       -         -       20.97     13.00 
   12  1.037   26.098     28.91     12.05     11.36      7.04 
   13  1.033   25.740       -         -       10.92      6.77 
   14  1.037   25.793       -         -        4.84      3.00 
   15  1.040   25.476      0.00     -9.42     29.76     18.45 
   16  1.039   25.835       -         -        9.39      5.82 
   17  1.049   26.113       -         -        3.31      2.05 
   18  1.040   25.544      0.00     -2.63     20.23     12.54 
   19  1.040   25.423      0.00     -7.07      9.80      6.07 
   20  1.042   25.619       -         -        5.39      3.34 
   21  1.045   25.996       -         -        3.38      2.10 
   22  1.048   26.601       -         -        3.21      1.99 
   23  1.053   27.878       -         -        2.42      1.50 
   24  1.049   27.704      0.00    -13.51      4.30      2.66 
   25  1.057   30.183     68.93    -24.25       -         -   
   26  1.017   30.796     99.09    -54.21       -         -   
   27  1.044   26.383      0.00      6.90     23.93     14.83 
   28  1.042   25.994       -         -        3.70      2.29 
   29  1.040   25.751       -         -        7.19      4.46 
   30  1.026   27.534       -         -         -         -   
   31  1.041   25.777      2.44      3.12     13.81      8.56 
   32  1.043   26.211      0.00      0.65     20.39     12.64 
   33  1.047   25.101       -         -        7.61      4.71 
   34  1.058   25.088      0.00     -8.00     22.16     13.73 
   35  1.055   25.002       -         -        9.94      6.16 
   36  1.054   25.002      0.00     -8.00     10.45      6.48 
   37  1.060   25.226       -         -         -         -   
   38  1.016   26.730       -         -         -         -   
   39  1.044   24.448       -         -        6.53      4.05 
   40  1.037   24.187      0.00     -4.55     21.20     13.14 
   41  1.034   24.045       -         -       12.79      7.92 
   42  1.038   24.454      0.00      9.94     31.75     19.68 
   43  1.059   24.923       -         -        6.76      4.19 
   44  1.060   25.579       -         -        4.82      2.99 
   45  1.051   26.194       -         -       17.87     11.07 
   46  1.042   27.317      6.43    -28.89      6.10      3.78 
   47  1.046   27.846       -         -       10.19      6.31 
   48  1.052   27.596       -         -        4.84      3.00 
   49  1.047   27.950     67.08    -31.67     27.95     17.32 
   50  1.043   27.314       -         -        5.87      3.64 
   51  1.038   26.488       -         -        5.62      3.48 
   52  1.036   26.200       -         -        6.76      4.19 
   53  1.036   25.955       -         -        6.93      4.30 
   54  1.038   26.218     16.78     11.37     38.09     23.61 
   55  1.038   26.171      0.00      4.59     13.72      8.50 
   56  1.038   26.198      0.00      6.85     25.16     15.60 
   57  1.040   26.567       -         -        2.90      1.80 
   58  1.037   26.281       -         -        3.85      2.39 
   59  1.043   27.235     51.58     14.88     95.73     59.33 
   60  1.042   28.347       -         -       25.80     15.99 
   61  1.044   28.592     51.72     30.02       -         -   
   62  1.044   28.447      0.00     10.60     23.20     14.38 
   63  1.014   28.191       -         -         -         -   
   64  1.020   28.694       -         -         -         -   
   65  1.010   29.672    124.00    -67.00       -         -   
   66  1.054   29.793    123.24    -67.00      9.43      5.84 
   67  1.047   28.931       -         -        8.99      5.57 
   68  1.008   29.471       -         -         -         -   
   69  1.056   30.000*   161.30    -91.87       -         -   
   70  1.045   27.493      0.00     -0.57     24.79     15.36 
   71  1.046   27.446       -         -         -         -   
   72  1.046   27.375      0.00     -2.88      4.05      2.51 
   73  1.045   27.422      0.00     -1.47      1.31      0.81 
   74  1.041   26.955      0.00     -0.60     20.37     12.63 
   75  1.041   27.241       -         -       11.36      7.04 
   76  1.037   26.485      0.00     18.92     21.84     13.54 
   77  1.047   28.731      0.00    -17.81     21.08     13.06 
   78  1.047   28.641       -         -       23.48     14.55 
   79  1.050   28.724       -         -       14.65      9.08 
   80  1.052   29.612    151.04    -56.71     39.18     24.28 
   81  1.004   29.538       -         -         -         -   
   82  1.059   28.674       -         -       11.76      7.29 
   83  1.060   28.890       -         -        5.99      3.71 
   84  1.057   29.504       -         -        2.66      1.65 
   85  1.055   29.898      0.00     -8.00      7.71      4.78 
   86  1.051   29.558       -         -        7.26      4.50 
   87  1.048   29.719      1.25     -4.22       -         -   
   88  1.053   30.648       -         -       18.03     11.17 
   89  1.060   31.767    178.05    -15.71       -         -   
   90  1.052   29.981      0.00     25.72     54.95     34.05 
   91  1.053   30.068      0.00     -1.67      2.18      1.35 
   92  1.055   30.342      0.00     -2.78     19.47     12.07 
   93  1.053   29.645       -         -        2.90      1.80 
   94  1.051   29.156       -         -        9.64      5.97 
   95  1.049   28.876       -         -       14.51      9.00 
   96  1.053   28.868       -         -       12.57      7.79 
   97  1.052   29.100       -         -        5.63      3.49 
   98  1.049   29.119       -         -       10.25      6.35 
   99  1.050   28.894      0.00      4.70     14.16      8.77 
  100  1.051   29.210     80.70    -16.61      8.06      4.99 
  101  1.052   29.437       -         -        6.59      4.08 
  102  1.055   30.011       -         -        1.21      0.75 
  103  1.047   28.207     13.33     -5.39      7.39      4.58 
  104  1.043   27.317      0.00     -3.53     13.13      8.14 
  105  1.044   26.981      0.00     -8.00     10.25      6.35 
  106  1.041   26.897       -         -       16.15     10.01 
  107  1.038   26.226      0.00     -3.41     15.07      9.34 
  108  1.043   26.747       -         -        0.67      0.42 
  109  1.042   26.667       -         -        1.74      1.08 
  110  1.041   26.531      0.00     -7.64     11.68      7.24 
  111  1.043   27.027     12.46     -1.06       -         -   
  112  1.035   25.784      0.00     10.43     21.84     13.54 
  113  1.044   26.177      0.00    -21.03      2.07      1.29 
  114  1.041   26.115       -         -        2.65      1.64 
  115  1.041   26.112       -         -        8.26      5.12 
  116  1.008   29.344      0.00     23.77     55.45     34.36 
  117  1.032   25.632       -         -        6.74      4.18 
  118  1.033   26.355       -         -       42.80     13.86 
                        --------  --------  --------  --------
               Total:   1379.14   -611.91   1366.69    834.33

================================================================================
|     Branch Data                                                              |
================================================================================
Brnch   From   To    From Bus Injection   To Bus Injection     Loss (I^2 * Z)  
  #     Bus    Bus    P (MW)   Q (MVAr)   P (MW)   Q (MVAr)   P (MW)   Q (MVAr)
-----  -----  -----  --------  --------  --------  --------  --------  --------
   0      1      2     -1.49     -0.94      1.49     -1.77     0.001      0.00
   1      1      3     -9.62      1.97      9.63     -3.09     0.012      0.04
   2      4      5    -31.34     30.40     31.37    -30.49     0.031      0.14
   3      3      5    -17.81      0.26     17.88     -2.99     0.072      0.32
   4      5      6     26.91     -5.87    -26.82      4.71     0.083      0.38
   5      6      7      9.63      1.25     -9.62     -1.83     0.004      0.02
   6      8      9   -139.72   -125.01    140.27      7.65     0.552      6.90
   7      8      5     98.47      2.34    -98.47      0.06    -0.000      2.40
   8      9     10   -140.27     -7.65    140.82   -118.23     0.548      6.84
   9      4     11     18.81     -0.22    -18.74     -1.44     0.069      0.23
  10      5     11     22.31     -3.78    -22.22      2.23     0.095      0.32
  11     11     12      7.94    -12.24     -7.93     11.74     0.011      0.04
  12      2     12     -7.48     -1.94      7.49      0.28     0.010      0.03
  13      3     12     -1.25     -3.02      1.26     -1.34     0.001      0.00
  14      7     12      2.49     -2.60     -2.49      1.66     0.001      0.00
  15     11     13     12.05     -1.55    -12.02     -0.36     0.030      0.10
  16     12     14      7.32     -3.55     -7.30      1.63     0.012      0.04
  17     13     15      1.10     -6.41     -1.09     -0.30     0.007      0.02
  18     14     15      2.47     -4.63     -2.46     -0.76     0.005      0.02
  19     12     16      5.14     -4.20     -5.13      1.93     0.007      0.03
  20     15     17    -31.91    -16.10     32.06     11.74     0.147      0.49
  21     16     17     -4.26     -7.74      4.28      2.74     0.019      0.08
  22     17     18     24.83     12.99    -24.74    -14.04     0.090      0.37
  23     18     19      4.51     -1.13     -4.51     -0.10     0.002      0.01
  24     19     20     -3.38     -2.59      3.38     -0.62     0.003      0.01
  25     15     19      2.20     -1.68     -2.20      0.60     0.001      0.00
  26     20     21     -8.77     -2.72      8.79      0.43     0.013      0.06
  27     21     22    -12.17     -2.53     12.20     -0.03     0.029      0.13
  28     22     23    -15.41     -1.96     15.49     -2.16     0.074      0.34
  29     23     24      8.69      4.07     -8.67     -9.51     0.015      0.05
  30     23     25    -54.76      1.45     55.19     -8.87     0.427      2.19
  31     26     25     31.37      7.01    -31.37     -6.66    -0.000      0.35
  32     25     27     45.12     -8.71    -44.54     -7.79     0.579      2.97
  33     27     28      8.77     -0.56     -8.76     -1.73     0.014      0.06
  34     28     29      5.06     -0.57     -5.05     -1.99     0.006      0.02
  35     30     17     71.67     53.11    -71.67    -50.40    -0.000      2.70
  36      8     30     32.82    -36.08    -32.77    -17.27     0.048      0.56
  37     26     30     67.72    -61.22    -67.35    -29.55     0.370      3.98
  38     17     31      5.31      1.77     -5.29     -6.07     0.019      0.06
  39     29     31     -2.14     -2.47      2.14      1.57     0.001      0.00
  40     23     32     28.17     -4.86    -27.94     -7.20     0.228      0.83
  41     31     32     -8.22     -0.94      8.24     -1.72     0.019      0.06
  42     27     32      4.36     -0.94     -4.36     -1.15     0.004      0.01
  43     15     33      3.50     -9.02     -3.47      5.62     0.023      0.08
  44     19     34      0.28    -11.05     -0.24      4.23     0.041      0.13
  45     35     36      0.83      3.50     -0.83     -3.80     0.000      0.00
  46     35     37    -10.77     -9.66     10.79      8.28     0.019      0.09
  47     33     37     -4.13    -10.33      4.17      6.38     0.033      0.11
  48     34     36      9.64     10.09     -9.62    -10.68     0.016      0.05
  49     34     37    -33.24    -17.11     33.28     16.12     0.032      0.12
  50     38     37     80.66     78.65    -80.66    -74.62    -0.000      4.03
  51     37     39     17.38      9.08    -17.26    -11.68     0.118      0.39
  52     37     40     15.05      6.67    -14.89    -10.83     0.163      0.46
  53     30     38     28.45     -6.29    -28.40    -37.15     0.047      0.55
  54     39     40     10.73      7.63    -10.70     -9.21     0.032      0.10
  55     40     41      6.91      4.12     -6.90     -5.40     0.009      0.03
  56     40     42     -2.52     -1.77      2.52     -3.23     0.004      0.01
  57     41     42     -5.89     -2.53      5.90     -1.12     0.013      0.04
  58     43     44     -5.07     -2.75      5.09     -4.00     0.014      0.06
  59     34     43      1.69     -3.28     -1.69     -1.44     0.001      0.01
  60     44     45     -9.91     12.25      9.97    -14.52     0.056      0.23
  61     45     46    -12.58      9.12     12.68    -12.42     0.101      0.34
  62     46     47     -8.16     -2.56      8.19     -0.80     0.024      0.08
  63     46     48     -4.19     -6.85      4.21      1.74     0.020      0.06
  64     47     49     -3.72     -2.56      3.72      0.82     0.003      0.01
  65     42     49    -20.09     -2.69     20.36     -5.43     0.270      1.22
  66     42     49    -20.09     -2.69     20.36     -5.43     0.270      1.22
  67     45     49    -15.25      5.36     15.44     -9.75     0.182      0.49
  68     48     49     -9.04     11.85      9.08    -13.13     0.039      0.11
  69     49     50     16.09     -1.18    -16.03     -0.69     0.063      0.18
  70     49     51     20.32     -1.68    -20.14     -1.52     0.183      0.52
  71     51     52      9.42     -0.08     -9.41     -1.37     0.017      0.05
  72     52     53      2.65     -2.82     -2.64     -1.52     0.003      0.01
  73     53     54     -4.29     -2.77      4.29     -0.54     0.005      0.02
  74     49     54     11.52     -3.46    -11.43     -4.21     0.089      0.35
  75     49     54     11.32     -3.91    -11.22     -3.68     0.102      0.34
  76     54     55      1.26     -1.02     -1.26     -1.15     0.000      0.00
  77     54     56      4.22      0.67     -4.22     -1.45     0.000      0.00
  78     55     56     -3.10      0.54      3.10     -0.94     0.000      0.00
  79     56     57     -7.19     -1.29      7.21     -1.27     0.016      0.05
  80     50     57     10.15     -2.95    -10.11     -0.53     0.045      0.13
  81     56     58     -1.23     -0.24      1.23     -2.36     0.001      0.00
  82     51     58      5.09     -1.88     -5.08     -0.03     0.006      0.02
  83     54     59     -8.43     -3.45      8.46     -2.87     0.033      0.15
  84     56     59     -7.63     -2.54      7.68     -3.48     0.045      0.14
  85     56     59     -7.99     -2.28      8.04     -3.37     0.048      0.14
  86     55     59     -9.37     -3.30      9.41     -2.63     0.039      0.18
  87     59     60    -13.71      1.79     13.76     -5.61     0.059      0.27
  88     59     61    -16.45      1.21     16.54     -5.04     0.085      0.39
  89     60     61    -35.55     -6.65     35.58      5.23     0.032      0.16
  90     60     62     -4.02     -3.73      4.02      2.15     0.003      0.01
  91     61     62      6.78     -3.08     -6.77      2.03     0.004      0.02
  92     63     59     47.58     36.33    -47.58    -35.09    -0.000      1.24
  93     63     64    -47.58    -36.33     47.63     14.56     0.049      0.56
  94     64     61      7.18    -32.63     -7.18     32.91    -0.000      0.28
  95     38     65    -52.26    -41.50     52.51    -63.10     0.252      2.76
  96     64     65    -54.80     18.07     54.92    -55.91     0.115      1.29
  97     49     66    -38.60     -1.19     38.85     -0.30     0.245      1.25
  98     49     66    -38.60     -1.19     38.85     -0.30     0.245      1.25
  99     62     66    -12.33     -5.25     12.39     -0.80     0.069      0.31
 100     62     67     -8.12     -2.71      8.14     -0.61     0.016      0.07
 101     65     66     -6.53     75.56      6.53    -73.73    -0.000      1.82
 102     66     67     17.20      2.29    -17.13     -4.97     0.062      0.28
 103     65     68     23.10    -23.55    -23.09    -41.32     0.008      0.10
 104     47     69    -14.65     -2.95     14.82     -4.33     0.166      0.55
 105     49     69    -11.87     -3.43     11.99     -5.30     0.128      0.42
 106     68     69    -28.43     66.12     28.43    -64.48    -0.000      1.65
 107     69     70     38.16     -6.07    -37.77     -5.73     0.392      1.66
 108     24     70      0.99     -4.65     -0.99     -6.52     0.000      0.01
 109     70     71      1.97     -2.76     -1.97      1.80     0.001      0.00
 110     24     72      3.39     -2.01     -3.38     -3.32     0.005      0.02Voltage value = 142.51225519019988 kV
Python Federate grantedtime = 3600.0
Load value = (2802.896051355583+908.0065163224149j) kW

 111     71     72      0.67     -2.79     -0.67     -2.07     0.000      0.00
 112     71     73      1.31      0.99     -1.31     -2.28     0.000      0.00
 113     70     74      8.04     -0.80     -8.01     -2.79     0.024      0.08
 114     70     75      3.96     -0.12     -3.95     -3.77     0.007      0.02
 115     69     75     43.20     -7.38    -42.53     -4.20     0.678      2.04
 116     74     75    -12.36      2.55     12.38     -3.61     0.018      0.06
 117     76     77    -28.22     -0.16     28.55     -2.73     0.330      1.10
 118     69     77     24.69     -4.31    -24.52     -6.62     0.170      0.55
 119     75     77    -13.88     -1.69     13.99     -3.38     0.108      0.36
 120     77     78     14.34      0.84    -14.34     -2.20     0.007      0.02
 121     78     79     -9.14    -12.35      9.15     11.69     0.011      0.05
 122     77     80    -34.16     -0.48     34.34     -4.21     0.182      0.52
 123     77     80    -16.13     -1.29     16.20     -0.97     0.070      0.25
 124     79     80    -23.80      1.28     23.88     -2.98     0.081      0.37
 125     68     81     -3.94    -18.85      3.94    -62.83     0.009      0.10
 126     81     80     -3.94     62.83      3.94    -61.55    -0.000      1.27
 127     77     82     -3.16    -17.22      3.20      8.29     0.047      0.13
 128     82     83    -11.71     -2.68     11.72     -1.53     0.014      0.04
 129     83     84     -6.35      4.34      6.39     -7.14     0.041      0.09
 130     83     85    -11.36      4.72     11.43     -8.38     0.066      0.23
 131     84     85     -9.05      5.49      9.08     -6.80     0.033      0.07
 132     85     86      6.03      0.82     -6.01     -3.83     0.013      0.05
 133     86     87     -1.25     -0.66      1.25     -4.22     0.001      0.01
 134     85     88    -13.24      3.63     13.28     -6.51     0.036      0.19
 135     85     89    -21.00     -2.04     21.10     -2.53     0.095      0.69
 136     88     89    -31.31     -4.66     31.43      3.14     0.124      0.64
 137     89     90     18.34     -3.52    -18.18     -1.81     0.155      0.56
 138     89     90     34.90     -5.80    -34.64     -4.95     0.258      1.08
 139     90     91     -2.13     -1.58      2.13     -0.79     0.001      0.00
 140     89     92     54.96     -3.64    -54.69     -1.13     0.266      1.36
 141     89     92     17.33     -3.37    -17.22     -0.84     0.105      0.42
 142     91     92     -4.31     -2.23      4.31     -1.38     0.007      0.02
 143     92     93     15.41     -2.98    -15.35      0.74     0.056      0.18
 144     92     94     14.06     -3.83    -13.97     -0.39     0.086      0.28
 145     93     94     12.45     -2.54    -12.42      0.56     0.032      0.10
 146     94     95     12.87      0.81    -12.85     -1.97     0.020      0.07
 147     80     96      7.53     -4.62     -7.51     -0.76     0.019      0.10
 148     82     96     -3.26      9.51      3.28    -15.49     0.024      0.08
 149     94     96      5.40     -4.52     -5.39      2.01     0.010      0.03
 150     80     97     10.27     -2.90    -10.26      0.18     0.018      0.09
 151     80     98      9.04     -0.47     -9.02     -2.61     0.018      0.08
 152     80     99      6.65     -3.30     -6.63     -2.65     0.018      0.08
 153     92    100      7.41     -2.73     -7.38     -2.36     0.032      0.15
 154     94    100     -1.51     -2.43      1.51     -4.24     0.001      0.00
 155     95     96     -1.67     -7.03      1.67      5.42     0.006      0.02
 156     96     97     -4.62      1.03      4.62     -3.67     0.004      0.02
 157     98    100     -1.23     -3.74      1.23     -1.50     0.001      0.00
 158     99    100     -7.52     -1.42      7.53     -0.92     0.009      0.04
 159    100    101     -3.41     -1.54      3.42     -2.07     0.003      0.01
 160     92    102     11.25     -1.96    -11.24      0.40     0.014      0.06
 161    101    102    -10.01     -2.01     10.03     -1.15     0.022      0.10
 162    100    103     36.02     -5.06    -35.84     -0.22     0.189      0.62
 163    100    104     17.87     -2.44    -17.74     -2.90     0.130      0.59
 164    103    104     10.58     -2.69    -10.53     -1.59     0.048      0.16
 165    103    105     13.59     -4.68    -13.50      0.51     0.093      0.28
 166    100    106     19.26     -3.54    -19.05     -2.47     0.203      0.77
 167    104    105     15.14     -7.17    -15.11      6.20     0.025      0.09
 168    105    106      4.03      3.52     -4.03     -5.06     0.004      0.02
 169    105    107      8.19     -1.25     -8.16     -3.75     0.033      0.12
 170    105    108      6.13     -1.52     -6.12     -0.46     0.009      0.02
 171    106    107      6.94     -2.48     -6.91     -2.54     0.024      0.08
 172    108    109      5.45      0.04     -5.45     -0.86     0.003      0.01
 173    103    110     17.61     -2.38    -17.50     -2.13     0.111      0.51
 174    109    110      3.71     -0.22     -3.70     -1.96     0.004      0.01
 175    110    111    -12.43     -1.00     12.46     -1.06     0.031      0.11
 176    110    112     21.95     -3.29    -21.84     -3.11     0.110      0.28
 177     17    113      1.89     19.10     -1.86    -19.84     0.032      0.11
 178     32    113      0.22     -3.16     -0.22     -2.48     0.000      0.00
 179     32    114      3.45      1.24     -3.45     -3.00     0.002      0.01
 180     27    115      7.47      1.36     -7.46     -3.46     0.009      0.04
 181    114    115      0.80      1.36     -0.80     -1.66     0.000      0.00
 182     68    116     55.46     -5.95    -55.45    -10.59     0.010      0.12
 183     12    117      6.76      0.41     -6.74     -4.18     0.016      0.07
 184     75    118     36.62      6.23    -36.44     -6.90     0.186      0.62
 185     76    118      6.37      5.55     -6.36     -6.96     0.012      0.04
                                                             --------  --------
                                                    Total:    12.455     80.48
PF TIme is 3600.0 and ACOPF time is 3600.0
PYPOWER Version 5.1.4, 27-June-2018 -- AC Optimal Power Flow
Python Interior Point Solver - PIPS, Version 1.0, 07-Feb-2011
Converged!

Converged in 3.49 seconds
Objective Function Value = 27973.95 $/hr
================================================================================
|     System Summary                                                           |
================================================================================

How many?                How much?              P (MW)            Q (MVAr)
---------------------    -------------------  -------------  -----------------
Buses            118     Total Gen Capacity    9966.2       -7345.0 to 11777.0
Generators        54     On-line Capacity      9966.2       -7345.0 to 11777.0
Committed Gens    54     Generation (actual)   1226.6            -713.1
Loads             99     Load                  1216.5             741.5
  Fixed           99       Fixed               1216.5             741.5
  Dispatchable     0       Dispatchable           0.0 of 0.0        0.0
Shunts            14     Shunt (inj)             -0.0              97.6
Branches         186     Losses (I^2 * Z)        10.11             66.49
Transformers       9     Branch Charging (inj)     -             1423.5
Inter-ties         0     Total Inter-tie Flow     0.0               0.0
Areas              1

                          Minimum                      Maximum
                 -------------------------  --------------------------------
Voltage Magnitude   1.002 p.u. @ bus 81         1.060 p.u. @ bus 83  
Voltage Angle      24.81 deg   @ bus 41        32.86 deg   @ bus 10  
P Losses (I^2*R)             -                  0.57 MW    @ line 69-75
Q Losses (I^2*X)             -                  5.74 MVAr  @ line 8-9
Lambda P           25.23 $/MWh @ bus 89        26.47 $/MWh @ bus 118 
Lambda Q           -0.41 $/MWh @ bus 44         0.05 $/MWh @ bus 118 

================================================================================
|     Bus Data                                                                 |
================================================================================
 Bus      Voltage          Generation             Load          Lambda($/MVA-hr)
  #   Mag(pu) Ang(deg)   P (MW)   Q (MVAr)   P (MW)   Q (MVAr)     P        Q   
----- ------- --------  --------  --------  --------  --------  -------  -------
    1  1.033   26.243      0.00      6.99     10.26      6.36    26.120     -
    2  1.034   26.329       -         -        5.28      3.27    26.104   0.006
    3  1.034   26.458       -         -        8.71      5.40    26.063   0.013
    4  1.037   27.274      0.00     36.89     10.26      6.36    25.878     -
    5  1.035   27.419       -         -         -         -      25.857   0.024
    6  1.036   26.683      0.00     15.52     15.59      9.66    26.008     -
    7  1.035   26.590       -         -        6.72      4.17    26.031   0.005
    8  1.020   28.665      0.00   -157.72      7.91      4.90    25.867     -
    9  1.042   30.627       -         -         -         -      25.723  -0.073
   10  1.028   32.863    125.35   -119.50       -         -      25.571     -
   11  1.034   26.661       -         -       18.48     11.45    26.032   0.022
   12  1.035   26.545     25.69      8.17     10.50      6.50    26.046     -
   13  1.033   26.247       -         -        8.95      5.54    26.136   0.026
   14  1.036   26.278       -         -        3.96      2.45    26.106  -0.011
   15  1.039   25.991      0.00     -9.94     26.97     16.72    26.156  -0.006
   16  1.037   26.297       -         -        8.85      5.48    26.089  -0.014
   17  1.048   26.564       -         -        3.11      1.93    25.989  -0.084
   18  1.039   26.060      0.00     -4.69     18.09     11.21    26.129     -
   19  1.039   25.945      0.00     -7.78      9.05      5.61    26.162  -0.003
   20  1.042   26.121       -         -        4.75      2.94    26.162  -0.020
   21  1.044   26.459       -         -        3.13      1.94    26.120  -0.035
   22  1.047   27.008       -         -        2.63      1.63    26.042  -0.046
   23  1.051   28.155       -         -        1.98      1.23    25.873  -0.038
...